96
As2Se3 ~96-atom random packed seed (PBC), L=20.0 Ã…
As    9.23848    6.57380    7.60145
As   13.36414   19.07705   13.97803
As    5.18866    8.55835   16.77978
As   19.98273   12.48411   16.53789
As    3.11940    0.72437   13.74081
As    8.97795   16.03570   18.92701
As    8.54258    0.44660   19.64720
As    7.12145    2.73673    3.48187
As    3.05175    4.43100   17.84296
As   10.72610   13.94218    5.54425
As    3.01836   11.58912    9.11375
As    7.69375    7.96995   17.15611
As   13.47010    0.39688    8.32801
As   17.38551   18.34205   15.38498
As    0.43888   12.87046    4.89905
As    1.68858    0.58247   18.55196
As   15.10232   10.49406    8.44670
As   11.09350   11.05047    0.65255
As    9.54316   17.64723   10.55089
As   14.12318   14.45406    4.17721
As    4.60740   16.61216   11.64713
As   15.78855    1.20144    9.69438
As   18.62738   14.14716    5.78062
As    4.64363   18.84551   11.37037
As   19.74695   15.55834    1.47240
As    8.20804   16.44118    5.09764
As    3.62346    2.64046   14.88361
As    2.64798    7.35091   13.69772
As    2.65535    8.11128   10.61387
As    0.44542    1.99434   16.59694
As    1.92056   18.61820   10.00917
As   14.23158    7.74369   14.69017
As   13.99490   15.70681    2.15744
As   16.94228    2.77905   13.69326
As    6.91665    0.48137   17.00408
As    3.89794   15.30916   13.57906
As   13.10474    4.37278    4.43982
As   17.14286    0.73833   19.03743
Se   19.19294    6.91436   10.73230
Se   17.98503    4.70374   15.70005
Se   15.79443    0.71780   12.67295
Se   17.70593   17.97450    4.94692
Se    2.86589   12.94065   18.96800
Se    9.24865   10.47607    7.55475
Se   13.15609   11.70084    9.66514
Se   17.18161    8.49256    7.63256
Se    5.68969   10.43131    8.96686
Se   10.61557   19.21285    1.70808
Se   11.44537    7.32867    5.60967
Se   10.16160   13.51576    8.17218
Se   16.63748    9.55848    3.30962
Se   19.17531    6.93151   14.11671
Se    1.44266   11.06038    1.29896
Se   15.63638    7.23818    9.87605
Se   19.24170    7.16549    4.70311
Se    6.48125    7.60730    2.70485
Se   18.93519    4.28255    3.51239
Se   12.15934   17.55489    5.50429
Se    5.48420    0.62761    9.65361
Se   16.98406   15.88281    2.46831
Se   11.92998   17.28782    0.93856
Se    1.03471    7.27221    8.37568
Se    8.62835   11.64185   14.42583
Se   10.46419    7.29679   13.01303
Se    1.85610    8.78354    3.65581
Se    0.95230    0.17383    5.71227
Se   19.34596   12.10904    2.66357
Se    3.63866    3.42998    1.91667
Se   18.77060    1.64881    7.15255
Se    5.16355    9.50779    0.21211
Se   11.12007   15.13975   16.62475
Se    8.50893    1.18865    1.48724
Se   19.92321    3.46829   19.71295
Se    2.40847   17.10914    7.68541
Se    5.79537   15.61901    0.91453
Se    6.46621   15.24166    8.33158
Se   15.06900    4.75637    0.32894
Se   18.37211    8.91739   18.05471
Se   10.16113    2.82428   19.13396
Se    4.74256    8.53205    6.19776
Se   14.03260    6.49610   19.55692
Se    1.35494    5.19528   19.52543
Se   13.58679    7.85834    0.15021
Se   11.74808   19.39707    8.71482
Se   15.21979   16.39687    7.55173
Se    0.70296   16.79245    0.63469
Se    1.79235    2.93248   19.16717
Se   13.07719   11.14356    3.41038
Se   13.45999   11.95225    1.27254
Se    3.86403   18.94351   16.71665
Se   13.75214   12.80976   19.94653
Se    4.96788   17.53481    3.10254
Se    6.79621   14.14897   13.05645
Se    2.18310    0.28871   10.01560
Se    6.51955   10.88775   14.27100
Se    8.93404    5.29080   12.12001
