10
As4Se6 10-atom quick test seed (PBC), L=10.0 Ã…
As    9.66045    6.18195    3.28025
As    9.96999    8.97304    3.79171
As    1.38232    8.19739    6.01784
As    1.86345    0.55157    0.75600
Se    9.72244    2.30970    9.41996
Se    6.57322    7.28302    6.73241
Se    0.21177    1.38347    2.01489
Se    2.32043    3.21638    1.83664
Se    3.25506    5.98571    3.31978
Se    8.98322    0.25489    4.21042
